simpoint/cactusADM
[root]
type=Root
config.root.type,Root
children=system
config.root.children,config.system
eventq_index=0
config.root.eventq_index,0
full_system=false
config.root.full_system,false
sim_quantum=0
config.root.sim_quantum,0
time_sync_enable=false
config.root.time_sync_enable,false
time_sync_period=100000000000
config.root.time_sync_period,100000000000
time_sync_spin_threshold=100000000
config.root.time_sync_spin_threshold,100000000

[system]
type=System
config.system.type,System
children=clk_domain cpu cpu_clk_domain cpu_voltage_domain dvfs_handler l2 mem_ctrls membus switch_cpus tol2bus voltage_domain
config.system.children,clk_domain cpu cpu_clk_domain cpu_voltage_domain dvfs_handler l2 mem_ctrls membus switch_cpus tol2bus voltage_domain
boot_osflags=a
config.system.boot_osflags,a
cache_line_size=64
config.system.cache_line_size,64
clk_domain=system.clk_domain
config.system.clk_domain,config.system.clk_domain
default_p_state=UNDEFINED
config.system.default_p_state,UNDEFINED
eventq_index=0
config.system.eventq_index,0
exit_on_work_items=false
config.system.exit_on_work_items,false
init_param=0
config.system.init_param,0
kernel=
config.system.kernel,
kernel_addr_check=true
config.system.kernel_addr_check,true
load_addr_mask=1099511627775
config.system.load_addr_mask,1099511627775
load_offset=0
config.system.load_offset,0
mem_mode=atomic
config.system.mem_mode,atomic
mem_ranges=0:1073741823:0:0:0:0
config.system.mem_ranges,0:1073741823:0:0:0:0
memories=system.mem_ctrls
config.system.memories,config.system.mem_ctrls
mmap_using_noreserve=false
config.system.mmap_using_noreserve,false
multi_thread=false
config.system.multi_thread,false
num_work_ids=16
config.system.num_work_ids,16
p_state_clk_gate_bins=20
config.system.p_state_clk_gate_bins,20
p_state_clk_gate_max=1000000000000
config.system.p_state_clk_gate_max,1000000000000
p_state_clk_gate_min=1000
config.system.p_state_clk_gate_min,1000
power_model=Null
config.system.power_model,Null
readfile=
config.system.readfile,
symbolfile=
config.system.symbolfile,
thermal_components=
config.system.thermal_components,
thermal_model=Null
config.system.thermal_model,Null
work_begin_ckpt_count=0
config.system.work_begin_ckpt_count,0
work_begin_cpu_id_exit=-1
config.system.work_begin_cpu_id_exit,-1
work_begin_exit_count=0
config.system.work_begin_exit_count,0
work_cpus_ckpt_count=0
config.system.work_cpus_ckpt_count,0
work_end_ckpt_count=0
config.system.work_end_ckpt_count,0
work_end_exit_count=0
config.system.work_end_exit_count,0
work_item_id=-1
config.system.work_item_id,-1
system_port=system.membus.slave[0]
config.system.system_port,config.system.membus.slave[0]

[system.clk_domain]
type=SrcClockDomain
config.system.clk_domain.type,SrcClockDomain
clock=1000
config.system.clk_domain.clock,1000
domain_id=-1
config.system.clk_domain.domain_id,-1
eventq_index=0
config.system.clk_domain.eventq_index,0
init_perf_level=0
config.system.clk_domain.init_perf_level,0
voltage_domain=system.voltage_domain
config.system.clk_domain.voltage_domain,config.system.voltage_domain

[system.cpu]
type=AtomicSimpleCPU
config.system.cpu0.type,AtomicSimpleCPU
children=apic_clk_domain dcache dtb dtb_walker_cache icache interrupts isa itb itb_walker_cache tracer workload
config.system.cpu0.children,apic_clk_domain dcache dtb dtb_walker_cache icache interrupts isa itb itb_walker_cache tracer workload
branchPred=Null
config.system.cpu0.branchPred,Null
checker=Null
config.system.cpu0.checker,Null
clk_domain=system.cpu_clk_domain
config.system.cpu0.clk_domain,config.system.cpu_clk_domain
cpu_id=0
config.system.cpu0.cpu_id,0
default_p_state=UNDEFINED
config.system.cpu0.default_p_state,UNDEFINED
do_checkpoint_insts=true
config.system.cpu0.do_checkpoint_insts,true
do_quiesce=true
config.system.cpu0.do_quiesce,true
do_statistics_insts=true
config.system.cpu0.do_statistics_insts,true
dtb=system.cpu0.dtb
config.system.cpu0.dtb,config.system.cpu0.dtb
eventq_index=0
config.system.cpu0.eventq_index,0
fastmem=false
config.system.cpu0.fastmem,false
function_trace=false
config.system.cpu0.function_trace,false
function_trace_start=0
config.system.cpu0.function_trace_start,0
interrupts=system.cpu0.interrupts
config.system.cpu0.interrupts,config.system.cpu0.interrupts
isa=system.cpu0.isa
config.system.cpu0.isa,config.system.cpu0.isa
itb=system.cpu0.itb
config.system.cpu0.itb,config.system.cpu0.itb
max_insts_all_threads=0
config.system.cpu0.max_insts_all_threads,0
max_insts_any_thread=0
config.system.cpu0.max_insts_any_thread,0
max_loads_all_threads=0
config.system.cpu0.max_loads_all_threads,0
max_loads_any_thread=0
config.system.cpu0.max_loads_any_thread,0
numThreads=1
config.system.cpu0.numThreads,1
p_state_clk_gate_bins=20
config.system.cpu0.p_state_clk_gate_bins,20
p_state_clk_gate_max=1000000000000
config.system.cpu0.p_state_clk_gate_max,1000000000000
p_state_clk_gate_min=1000
config.system.cpu0.p_state_clk_gate_min,1000
power_model=Null
config.system.cpu0.power_model,Null
profile=0
config.system.cpu0.profile,0
progress_interval=0
config.system.cpu0.progress_interval,0
simpoint_start_insts=1000000 101000000
config.system.cpu0.simpoint_start_insts,1000000 101000000
simulate_data_stalls=false
config.system.cpu0.simulate_data_stalls,false
simulate_inst_stalls=false
config.system.cpu0.simulate_inst_stalls,false
socket_id=0
config.system.cpu0.socket_id,0
switched_out=false
config.system.cpu0.switched_out,false
system=system
config.system.cpu0.system,config.system
tracer=system.cpu0.tracer
config.system.cpu0.tracer,config.system.cpu0.tracer
width=1
config.system.cpu0.width,1
workload=system.cpu0.workload
config.system.cpu0.workload,config.system.cpu0.workload
dcache_port=system.cpu0.dcache.cpu_side
config.system.cpu0.dcache_port,config.system.cpu0.dcache.cpu_side
icache_port=system.cpu0.icache.cpu_side
config.system.cpu0.icache_port,config.system.cpu0.icache.cpu_side

[system.cpu0.apic_clk_domain]
type=DerivedClockDomain
config.system.cpu0.apic_clk_domain.type,DerivedClockDomain
clk_divider=16
config.system.cpu0.apic_clk_domain.clk_divider,16
clk_domain=system.cpu_clk_domain
config.system.cpu0.apic_clk_domain.clk_domain,config.system.cpu_clk_domain
eventq_index=0
config.system.cpu0.apic_clk_domain.eventq_index,0

[system.cpu0.dcache]
type=Cache
config.system.cpu0.dcache.type,Cache
children=tags
config.system.cpu0.dcache.children,tags
addr_ranges=0:18446744073709551615:0:0:0:0
config.system.cpu0.dcache.addr_ranges,0:18446744073709551615:0:0:0:0
assoc=8
config.system.cpu0.dcache.assoc,8
clk_domain=system.cpu_clk_domain
config.system.cpu0.dcache.clk_domain,config.system.cpu_clk_domain
clusivity=mostly_incl
config.system.cpu0.dcache.clusivity,mostly_incl
default_p_state=UNDEFINED
config.system.cpu0.dcache.default_p_state,UNDEFINED
demand_mshr_reserve=1
config.system.cpu0.dcache.demand_mshr_reserve,1
eventq_index=0
config.system.cpu0.dcache.eventq_index,0
hit_latency=2
config.system.cpu0.dcache.hit_latency,2
is_read_only=false
config.system.cpu0.dcache.is_read_only,false
max_miss_count=0
config.system.cpu0.dcache.max_miss_count,0
mshrs=4
config.system.cpu0.dcache.mshrs,4
p_state_clk_gate_bins=20
config.system.cpu0.dcache.p_state_clk_gate_bins,20
p_state_clk_gate_max=1000000000000
config.system.cpu0.dcache.p_state_clk_gate_max,1000000000000
p_state_clk_gate_min=1000
config.system.cpu0.dcache.p_state_clk_gate_min,1000
power_model=Null
config.system.cpu0.dcache.power_model,Null
prefetch_on_access=false
config.system.cpu0.dcache.prefetch_on_access,false
prefetcher=Null
config.system.cpu0.dcache.prefetcher,Null
response_latency=2
config.system.cpu0.dcache.response_latency,2
sequential_access=false
config.system.cpu0.dcache.sequential_access,false
size=32768
config.system.cpu0.dcache.size,32768
system=system
config.system.cpu0.dcache.system,config.system
tags=system.cpu0.dcache.tags
config.system.cpu0.dcache.tags,config.system.cpu0.dcache.tags
tgts_per_mshr=20
config.system.cpu0.dcache.tgts_per_mshr,20
write_buffers=8
config.system.cpu0.dcache.write_buffers,8
writeback_clean=false
config.system.cpu0.dcache.writeback_clean,false
cpu_side=system.cpu0.dcache_port
config.system.cpu0.dcache.cpu_side,config.system.cpu0.dcache_port
mem_side=system.tol2bus.slave[1]
config.system.cpu0.dcache.mem_side,config.system.tol2bus.slave[1]

[system.cpu0.dcache.tags]
type=LRU
config.system.cpu0.dcache.tags.type,LRU
assoc=8
config.system.cpu0.dcache.tags.assoc,8
block_size=64
config.system.cpu0.dcache.tags.block_size,64
clk_domain=system.cpu_clk_domain
config.system.cpu0.dcache.tags.clk_domain,config.system.cpu_clk_domain
default_p_state=UNDEFINED
config.system.cpu0.dcache.tags.default_p_state,UNDEFINED
eventq_index=0
config.system.cpu0.dcache.tags.eventq_index,0
hit_latency=2
config.system.cpu0.dcache.tags.hit_latency,2
p_state_clk_gate_bins=20
config.system.cpu0.dcache.tags.p_state_clk_gate_bins,20
p_state_clk_gate_max=1000000000000
config.system.cpu0.dcache.tags.p_state_clk_gate_max,1000000000000
p_state_clk_gate_min=1000
config.system.cpu0.dcache.tags.p_state_clk_gate_min,1000
power_model=Null
config.system.cpu0.dcache.tags.power_model,Null
sequential_access=false
config.system.cpu0.dcache.tags.sequential_access,false
size=32768
config.system.cpu0.dcache.tags.size,32768

[system.cpu0.dtb]
type=X86TLB
config.system.cpu0.dtb.type,X86TLB
children=walker
config.system.cpu0.dtb.children,walker
eventq_index=0
config.system.cpu0.dtb.eventq_index,0
size=64
config.system.cpu0.dtb.size,64
walker=system.cpu0.dtb.walker
config.system.cpu0.dtb.walker,config.system.cpu0.dtb.walker

[system.cpu0.dtb.walker]
type=X86PagetableWalker
config.system.cpu0.dtb.walker.type,X86PagetableWalker
clk_domain=system.cpu_clk_domain
config.system.cpu0.dtb.walker.clk_domain,config.system.cpu_clk_domain
default_p_state=UNDEFINED
config.system.cpu0.dtb.walker.default_p_state,UNDEFINED
eventq_index=0
config.system.cpu0.dtb.walker.eventq_index,0
num_squash_per_cycle=4
config.system.cpu0.dtb.walker.num_squash_per_cycle,4
p_state_clk_gate_bins=20
config.system.cpu0.dtb.walker.p_state_clk_gate_bins,20
p_state_clk_gate_max=1000000000000
config.system.cpu0.dtb.walker.p_state_clk_gate_max,1000000000000
p_state_clk_gate_min=1000
config.system.cpu0.dtb.walker.p_state_clk_gate_min,1000
power_model=Null
config.system.cpu0.dtb.walker.power_model,Null
system=system
config.system.cpu0.dtb.walker.system,config.system
port=system.cpu0.dtb_walker_cache.cpu_side
config.system.cpu0.dtb.walker.port,config.system.cpu0.dtb_walker_cache.cpu_side

[system.cpu0.dtb_walker_cache]
type=Cache
config.system.cpu0.dtb_walker_cache.type,Cache
children=tags
config.system.cpu0.dtb_walker_cache.children,tags
addr_ranges=0:18446744073709551615:0:0:0:0
config.system.cpu0.dtb_walker_cache.addr_ranges,0:18446744073709551615:0:0:0:0
assoc=2
config.system.cpu0.dtb_walker_cache.assoc,2
clk_domain=system.cpu_clk_domain
config.system.cpu0.dtb_walker_cache.clk_domain,config.system.cpu_clk_domain
clusivity=mostly_incl
config.system.cpu0.dtb_walker_cache.clusivity,mostly_incl
default_p_state=UNDEFINED
config.system.cpu0.dtb_walker_cache.default_p_state,UNDEFINED
demand_mshr_reserve=1
config.system.cpu0.dtb_walker_cache.demand_mshr_reserve,1
eventq_index=0
config.system.cpu0.dtb_walker_cache.eventq_index,0
hit_latency=2
config.system.cpu0.dtb_walker_cache.hit_latency,2
is_read_only=false
config.system.cpu0.dtb_walker_cache.is_read_only,false
max_miss_count=0
config.system.cpu0.dtb_walker_cache.max_miss_count,0
mshrs=10
config.system.cpu0.dtb_walker_cache.mshrs,10
p_state_clk_gate_bins=20
config.system.cpu0.dtb_walker_cache.p_state_clk_gate_bins,20
p_state_clk_gate_max=1000000000000
config.system.cpu0.dtb_walker_cache.p_state_clk_gate_max,1000000000000
p_state_clk_gate_min=1000
config.system.cpu0.dtb_walker_cache.p_state_clk_gate_min,1000
power_model=Null
config.system.cpu0.dtb_walker_cache.power_model,Null
prefetch_on_access=false
config.system.cpu0.dtb_walker_cache.prefetch_on_access,false
prefetcher=Null
config.system.cpu0.dtb_walker_cache.prefetcher,Null
response_latency=2
config.system.cpu0.dtb_walker_cache.response_latency,2
sequential_access=false
config.system.cpu0.dtb_walker_cache.sequential_access,false
size=1024
config.system.cpu0.dtb_walker_cache.size,1024
system=system
config.system.cpu0.dtb_walker_cache.system,config.system
tags=system.cpu0.dtb_walker_cache.tags
config.system.cpu0.dtb_walker_cache.tags,config.system.cpu0.dtb_walker_cache.tags
tgts_per_mshr=12
config.system.cpu0.dtb_walker_cache.tgts_per_mshr,12
write_buffers=8
config.system.cpu0.dtb_walker_cache.write_buffers,8
writeback_clean=false
config.system.cpu0.dtb_walker_cache.writeback_clean,false
cpu_side=system.cpu0.dtb.walker.port
config.system.cpu0.dtb_walker_cache.cpu_side,config.system.cpu0.dtb.walker.port
mem_side=system.tol2bus.slave[3]
config.system.cpu0.dtb_walker_cache.mem_side,config.system.tol2bus.slave[3]

[system.cpu0.dtb_walker_cache.tags]
type=LRU
config.system.cpu0.dtb_walker_cache.tags.type,LRU
assoc=2
config.system.cpu0.dtb_walker_cache.tags.assoc,2
block_size=64
config.system.cpu0.dtb_walker_cache.tags.block_size,64
clk_domain=system.cpu_clk_domain
config.system.cpu0.dtb_walker_cache.tags.clk_domain,config.system.cpu_clk_domain
default_p_state=UNDEFINED
config.system.cpu0.dtb_walker_cache.tags.default_p_state,UNDEFINED
eventq_index=0
config.system.cpu0.dtb_walker_cache.tags.eventq_index,0
hit_latency=2
config.system.cpu0.dtb_walker_cache.tags.hit_latency,2
p_state_clk_gate_bins=20
config.system.cpu0.dtb_walker_cache.tags.p_state_clk_gate_bins,20
p_state_clk_gate_max=1000000000000
config.system.cpu0.dtb_walker_cache.tags.p_state_clk_gate_max,1000000000000
p_state_clk_gate_min=1000
config.system.cpu0.dtb_walker_cache.tags.p_state_clk_gate_min,1000
power_model=Null
config.system.cpu0.dtb_walker_cache.tags.power_model,Null
sequential_access=false
config.system.cpu0.dtb_walker_cache.tags.sequential_access,false
size=1024
config.system.cpu0.dtb_walker_cache.tags.size,1024

[system.cpu0.icache]
type=Cache
config.system.cpu0.icache.type,Cache
children=tags
config.system.cpu0.icache.children,tags
addr_ranges=0:18446744073709551615:0:0:0:0
config.system.cpu0.icache.addr_ranges,0:18446744073709551615:0:0:0:0
assoc=8
config.system.cpu0.icache.assoc,8
clk_domain=system.cpu_clk_domain
config.system.cpu0.icache.clk_domain,config.system.cpu_clk_domain
clusivity=mostly_incl
config.system.cpu0.icache.clusivity,mostly_incl
default_p_state=UNDEFINED
config.system.cpu0.icache.default_p_state,UNDEFINED
demand_mshr_reserve=1
config.system.cpu0.icache.demand_mshr_reserve,1
eventq_index=0
config.system.cpu0.icache.eventq_index,0
hit_latency=2
config.system.cpu0.icache.hit_latency,2
is_read_only=true
config.system.cpu0.icache.is_read_only,true
max_miss_count=0
config.system.cpu0.icache.max_miss_count,0
mshrs=4
config.system.cpu0.icache.mshrs,4
p_state_clk_gate_bins=20
config.system.cpu0.icache.p_state_clk_gate_bins,20
p_state_clk_gate_max=1000000000000
config.system.cpu0.icache.p_state_clk_gate_max,1000000000000
p_state_clk_gate_min=1000
config.system.cpu0.icache.p_state_clk_gate_min,1000
power_model=Null
config.system.cpu0.icache.power_model,Null
prefetch_on_access=false
config.system.cpu0.icache.prefetch_on_access,false
prefetcher=Null
config.system.cpu0.icache.prefetcher,Null
response_latency=2
config.system.cpu0.icache.response_latency,2
sequential_access=false
config.system.cpu0.icache.sequential_access,false
size=32768
config.system.cpu0.icache.size,32768
system=system
config.system.cpu0.icache.system,config.system
tags=system.cpu0.icache.tags
config.system.cpu0.icache.tags,config.system.cpu0.icache.tags
tgts_per_mshr=20
config.system.cpu0.icache.tgts_per_mshr,20
write_buffers=8
config.system.cpu0.icache.write_buffers,8
writeback_clean=true
config.system.cpu0.icache.writeback_clean,true
cpu_side=system.cpu0.icache_port
config.system.cpu0.icache.cpu_side,config.system.cpu0.icache_port
mem_side=system.tol2bus.slave[0]
config.system.cpu0.icache.mem_side,config.system.tol2bus.slave[0]

[system.cpu0.icache.tags]
type=LRU
config.system.cpu0.icache.tags.type,LRU
assoc=8
config.system.cpu0.icache.tags.assoc,8
block_size=64
config.system.cpu0.icache.tags.block_size,64
clk_domain=system.cpu_clk_domain
config.system.cpu0.icache.tags.clk_domain,config.system.cpu_clk_domain
default_p_state=UNDEFINED
config.system.cpu0.icache.tags.default_p_state,UNDEFINED
eventq_index=0
config.system.cpu0.icache.tags.eventq_index,0
hit_latency=2
config.system.cpu0.icache.tags.hit_latency,2
p_state_clk_gate_bins=20
config.system.cpu0.icache.tags.p_state_clk_gate_bins,20
p_state_clk_gate_max=1000000000000
config.system.cpu0.icache.tags.p_state_clk_gate_max,1000000000000
p_state_clk_gate_min=1000
config.system.cpu0.icache.tags.p_state_clk_gate_min,1000
power_model=Null
config.system.cpu0.icache.tags.power_model,Null
sequential_access=false
config.system.cpu0.icache.tags.sequential_access,false
size=32768
config.system.cpu0.icache.tags.size,32768

[system.cpu0.interrupts]
type=X86LocalApic
config.system.cpu0.interrupts.type,X86LocalApic
clk_domain=system.cpu0.apic_clk_domain
config.system.cpu0.interrupts.clk_domain,config.system.cpu0.apic_clk_domain
default_p_state=UNDEFINED
config.system.cpu0.interrupts.default_p_state,UNDEFINED
eventq_index=0
config.system.cpu0.interrupts.eventq_index,0
int_latency=1000
config.system.cpu0.interrupts.int_latency,1000
p_state_clk_gate_bins=20
config.system.cpu0.interrupts.p_state_clk_gate_bins,20
p_state_clk_gate_max=1000000000000
config.system.cpu0.interrupts.p_state_clk_gate_max,1000000000000
p_state_clk_gate_min=1000
config.system.cpu0.interrupts.p_state_clk_gate_min,1000
pio_addr=2305843009213693952
config.system.cpu0.interrupts.pio_addr,2305843009213693952
pio_latency=100000
config.system.cpu0.interrupts.pio_latency,100000
power_model=Null
config.system.cpu0.interrupts.power_model,Null
system=system
config.system.cpu0.interrupts.system,config.system
int_master=system.membus.slave[2]
config.system.cpu0.interrupts.int_master,config.system.membus.slave[2]
int_slave=system.membus.master[1]
config.system.cpu0.interrupts.int_slave,config.system.membus.master[1]
pio=system.membus.master[0]
config.system.cpu0.interrupts.pio,config.system.membus.master[0]

[system.cpu0.isa]
type=X86ISA
config.system.cpu0.isa.type,X86ISA
eventq_index=0
config.system.cpu0.isa.eventq_index,0

[system.cpu0.itb]
type=X86TLB
config.system.cpu0.itb.type,X86TLB
children=walker
config.system.cpu0.itb.children,walker
eventq_index=0
config.system.cpu0.itb.eventq_index,0
size=64
config.system.cpu0.itb.size,64
walker=system.cpu0.itb.walker
config.system.cpu0.itb.walker,config.system.cpu0.itb.walker

[system.cpu0.itb.walker]
type=X86PagetableWalker
config.system.cpu0.itb.walker.type,X86PagetableWalker
clk_domain=system.cpu_clk_domain
config.system.cpu0.itb.walker.clk_domain,config.system.cpu_clk_domain
default_p_state=UNDEFINED
config.system.cpu0.itb.walker.default_p_state,UNDEFINED
eventq_index=0
config.system.cpu0.itb.walker.eventq_index,0
num_squash_per_cycle=4
config.system.cpu0.itb.walker.num_squash_per_cycle,4
p_state_clk_gate_bins=20
config.system.cpu0.itb.walker.p_state_clk_gate_bins,20
p_state_clk_gate_max=1000000000000
config.system.cpu0.itb.walker.p_state_clk_gate_max,1000000000000
p_state_clk_gate_min=1000
config.system.cpu0.itb.walker.p_state_clk_gate_min,1000
power_model=Null
config.system.cpu0.itb.walker.power_model,Null
system=system
config.system.cpu0.itb.walker.system,config.system
port=system.cpu0.itb_walker_cache.cpu_side
config.system.cpu0.itb.walker.port,config.system.cpu0.itb_walker_cache.cpu_side

[system.cpu0.itb_walker_cache]
type=Cache
config.system.cpu0.itb_walker_cache.type,Cache
children=tags
config.system.cpu0.itb_walker_cache.children,tags
addr_ranges=0:18446744073709551615:0:0:0:0
config.system.cpu0.itb_walker_cache.addr_ranges,0:18446744073709551615:0:0:0:0
assoc=2
config.system.cpu0.itb_walker_cache.assoc,2
clk_domain=system.cpu_clk_domain
config.system.cpu0.itb_walker_cache.clk_domain,config.system.cpu_clk_domain
clusivity=mostly_incl
config.system.cpu0.itb_walker_cache.clusivity,mostly_incl
default_p_state=UNDEFINED
config.system.cpu0.itb_walker_cache.default_p_state,UNDEFINED
demand_mshr_reserve=1
config.system.cpu0.itb_walker_cache.demand_mshr_reserve,1
eventq_index=0
config.system.cpu0.itb_walker_cache.eventq_index,0
hit_latency=2
config.system.cpu0.itb_walker_cache.hit_latency,2
is_read_only=false
config.system.cpu0.itb_walker_cache.is_read_only,false
max_miss_count=0
config.system.cpu0.itb_walker_cache.max_miss_count,0
mshrs=10
config.system.cpu0.itb_walker_cache.mshrs,10
p_state_clk_gate_bins=20
config.system.cpu0.itb_walker_cache.p_state_clk_gate_bins,20
p_state_clk_gate_max=1000000000000
config.system.cpu0.itb_walker_cache.p_state_clk_gate_max,1000000000000
p_state_clk_gate_min=1000
config.system.cpu0.itb_walker_cache.p_state_clk_gate_min,1000
power_model=Null
config.system.cpu0.itb_walker_cache.power_model,Null
prefetch_on_access=false
config.system.cpu0.itb_walker_cache.prefetch_on_access,false
prefetcher=Null
config.system.cpu0.itb_walker_cache.prefetcher,Null
response_latency=2
config.system.cpu0.itb_walker_cache.response_latency,2
sequential_access=false
config.system.cpu0.itb_walker_cache.sequential_access,false
size=1024
config.system.cpu0.itb_walker_cache.size,1024
system=system
config.system.cpu0.itb_walker_cache.system,config.system
tags=system.cpu0.itb_walker_cache.tags
config.system.cpu0.itb_walker_cache.tags,config.system.cpu0.itb_walker_cache.tags
tgts_per_mshr=12
config.system.cpu0.itb_walker_cache.tgts_per_mshr,12
write_buffers=8
config.system.cpu0.itb_walker_cache.write_buffers,8
writeback_clean=false
config.system.cpu0.itb_walker_cache.writeback_clean,false
cpu_side=system.cpu0.itb.walker.port
config.system.cpu0.itb_walker_cache.cpu_side,config.system.cpu0.itb.walker.port
mem_side=system.tol2bus.slave[2]
config.system.cpu0.itb_walker_cache.mem_side,config.system.tol2bus.slave[2]

[system.cpu0.itb_walker_cache.tags]
type=LRU
config.system.cpu0.itb_walker_cache.tags.type,LRU
assoc=2
config.system.cpu0.itb_walker_cache.tags.assoc,2
block_size=64
config.system.cpu0.itb_walker_cache.tags.block_size,64
clk_domain=system.cpu_clk_domain
config.system.cpu0.itb_walker_cache.tags.clk_domain,config.system.cpu_clk_domain
default_p_state=UNDEFINED
config.system.cpu0.itb_walker_cache.tags.default_p_state,UNDEFINED
eventq_index=0
config.system.cpu0.itb_walker_cache.tags.eventq_index,0
hit_latency=2
config.system.cpu0.itb_walker_cache.tags.hit_latency,2
p_state_clk_gate_bins=20
config.system.cpu0.itb_walker_cache.tags.p_state_clk_gate_bins,20
p_state_clk_gate_max=1000000000000
config.system.cpu0.itb_walker_cache.tags.p_state_clk_gate_max,1000000000000
p_state_clk_gate_min=1000
config.system.cpu0.itb_walker_cache.tags.p_state_clk_gate_min,1000
power_model=Null
config.system.cpu0.itb_walker_cache.tags.power_model,Null
sequential_access=false
config.system.cpu0.itb_walker_cache.tags.sequential_access,false
size=1024
config.system.cpu0.itb_walker_cache.tags.size,1024

[system.cpu0.tracer]
type=ExeTracer
config.system.cpu0.tracer.type,ExeTracer
eventq_index=0
config.system.cpu0.tracer.eventq_index,0

[system.cpu0.workload]
type=LiveProcess
config.system.cpu0.workload.type,LiveProcess
cmd=../../../big/rrip/cpu2006/benchspec/CPU2006/436.cactusADM/exe/cactusADM_base.amd64-m64-gcc42-nn ../../../big/rrip/cpu2006/benchspec/CPU2006/436.cactusADM/data/test/input/benchADM.par
config.system.cpu0.workload.cmd,../../../big/rrip/cpu2006/benchspec/CPU2006/436.cactusADM/exe/cactusADM_base.amd64-m64-gcc42-nn ../../../big/rrip/cpu2006/benchspec/CPU2006/436.cactusADM/data/test/input/benchADM.par
cwd=/home/local/twin/kshitiz/gem5
config.system.cpu0.workload.cwd,/home/local/twin/kshitiz/gem5
drivers=
config.system.cpu0.workload.drivers,
egid=100
config.system.cpu0.workload.egid,100
env=
config.system.cpu0.workload.env,
errout=cerr
config.system.cpu0.workload.errout,cerr
euid=100
config.system.cpu0.workload.euid,100
eventq_index=0
config.system.cpu0.workload.eventq_index,0
executable=../../../big/rrip/cpu2006/benchspec/CPU2006/436.cactusADM/exe/cactusADM_base.amd64-m64-gcc42-nn
config.system.cpu0.workload.executable,../../../big/rrip/cpu2006/benchspec/CPU2006/436.cactusADM/exe/cactusADM_base.amd64-m64-gcc42-nn
gid=100
config.system.cpu0.workload.gid,100
input=cin
config.system.cpu0.workload.input,cin
kvmInSE=false
config.system.cpu0.workload.kvmInSE,false
max_stack_size=67108864
config.system.cpu0.workload.max_stack_size,67108864
output=output/singleCore-1gb/cactusADM/benchADM.out
config.system.cpu0.workload.output,output/singleCore-1gb/cactusADM/benchADM.out
pid=100
config.system.cpu0.workload.pid,100
ppid=99
config.system.cpu0.workload.ppid,99
simpoint=0
config.system.cpu0.workload.simpoint,0
system=system
config.system.cpu0.workload.system,config.system
uid=100
config.system.cpu0.workload.uid,100
useArchPT=false
config.system.cpu0.workload.useArchPT,false

[system.cpu_clk_domain]
type=SrcClockDomain
config.system.cpu_clk_domain.type,SrcClockDomain
clock=400
config.system.cpu_clk_domain.clock,400
domain_id=-1
config.system.cpu_clk_domain.domain_id,-1
eventq_index=0
config.system.cpu_clk_domain.eventq_index,0
init_perf_level=0
config.system.cpu_clk_domain.init_perf_level,0
voltage_domain=system.cpu_voltage_domain
config.system.cpu_clk_domain.voltage_domain,config.system.cpu_voltage_domain

[system.cpu_voltage_domain]
type=VoltageDomain
config.system.cpu_voltage_domain.type,VoltageDomain
eventq_index=0
config.system.cpu_voltage_domain.eventq_index,0
voltage=1.000000
config.system.cpu_voltage_domain.voltage,1.000000

[system.dvfs_handler]
type=DVFSHandler
config.system.dvfs_handler.type,DVFSHandler
domains=
config.system.dvfs_handler.domains,
enable=false
config.system.dvfs_handler.enable,false
eventq_index=0
config.system.dvfs_handler.eventq_index,0
sys_clk_domain=system.clk_domain
config.system.dvfs_handler.sys_clk_domain,config.system.clk_domain
transition_latency=100000000
config.system.dvfs_handler.transition_latency,100000000

[system.l2]
type=Cache
config.system.l2.type,Cache
children=tags
config.system.l2.children,tags
addr_ranges=0:18446744073709551615:0:0:0:0
config.system.l2.addr_ranges,0:18446744073709551615:0:0:0:0
assoc=8
config.system.l2.assoc,8
clk_domain=system.cpu_clk_domain
config.system.l2.clk_domain,config.system.cpu_clk_domain
clusivity=mostly_incl
config.system.l2.clusivity,mostly_incl
default_p_state=UNDEFINED
config.system.l2.default_p_state,UNDEFINED
demand_mshr_reserve=1
config.system.l2.demand_mshr_reserve,1
eventq_index=0
config.system.l2.eventq_index,0
hit_latency=20
config.system.l2.hit_latency,20
is_read_only=false
config.system.l2.is_read_only,false
max_miss_count=0
config.system.l2.max_miss_count,0
mshrs=20
config.system.l2.mshrs,20
p_state_clk_gate_bins=20
config.system.l2.p_state_clk_gate_bins,20
p_state_clk_gate_max=1000000000000
config.system.l2.p_state_clk_gate_max,1000000000000
p_state_clk_gate_min=1000
config.system.l2.p_state_clk_gate_min,1000
power_model=Null
config.system.l2.power_model,Null
prefetch_on_access=false
config.system.l2.prefetch_on_access,false
prefetcher=Null
config.system.l2.prefetcher,Null
response_latency=20
config.system.l2.response_latency,20
sequential_access=false
config.system.l2.sequential_access,false
size=1048576
config.system.l2.size,1048576
system=system
config.system.l2.system,config.system
tags=system.l2.tags
config.system.l2.tags,config.system.l2.tags
tgts_per_mshr=12
config.system.l2.tgts_per_mshr,12
write_buffers=8
config.system.l2.write_buffers,8
writeback_clean=false
config.system.l2.writeback_clean,false
cpu_side=system.tol2bus.master[0]
config.system.l2.cpu_side,config.system.tol2bus.master[0]
mem_side=system.membus.slave[1]
config.system.l2.mem_side,config.system.membus.slave[1]

[system.l2.tags]
type=LRU
config.system.l2.tags.type,LRU
assoc=8
config.system.l2.tags.assoc,8
block_size=64
config.system.l2.tags.block_size,64
clk_domain=system.cpu_clk_domain
config.system.l2.tags.clk_domain,config.system.cpu_clk_domain
default_p_state=UNDEFINED
config.system.l2.tags.default_p_state,UNDEFINED
eventq_index=0
config.system.l2.tags.eventq_index,0
hit_latency=20
config.system.l2.tags.hit_latency,20
p_state_clk_gate_bins=20
config.system.l2.tags.p_state_clk_gate_bins,20
p_state_clk_gate_max=1000000000000
config.system.l2.tags.p_state_clk_gate_max,1000000000000
p_state_clk_gate_min=1000
config.system.l2.tags.p_state_clk_gate_min,1000
power_model=Null
config.system.l2.tags.power_model,Null
sequential_access=false
config.system.l2.tags.sequential_access,false
size=1048576
config.system.l2.tags.size,1048576

[system.mem_ctrls]
type=DRAMCtrl
config.system.mem_ctrls.type,DRAMCtrl
IDD0=0.055000
config.system.mem_ctrls.IDD0,0.055000
IDD02=0.000000
config.system.mem_ctrls.IDD02,0.000000
IDD2N=0.032000
config.system.mem_ctrls.IDD2N,0.032000
IDD2N2=0.000000
config.system.mem_ctrls.IDD2N2,0.000000
IDD2P0=0.000000
config.system.mem_ctrls.IDD2P0,0.000000
IDD2P02=0.000000
config.system.mem_ctrls.IDD2P02,0.000000
IDD2P1=0.032000
config.system.mem_ctrls.IDD2P1,0.032000
IDD2P12=0.000000
config.system.mem_ctrls.IDD2P12,0.000000
IDD3N=0.038000
config.system.mem_ctrls.IDD3N,0.038000
IDD3N2=0.000000
config.system.mem_ctrls.IDD3N2,0.000000
IDD3P0=0.000000
config.system.mem_ctrls.IDD3P0,0.000000
IDD3P02=0.000000
config.system.mem_ctrls.IDD3P02,0.000000
IDD3P1=0.038000
config.system.mem_ctrls.IDD3P1,0.038000
IDD3P12=0.000000
config.system.mem_ctrls.IDD3P12,0.000000
IDD4R=0.157000
config.system.mem_ctrls.IDD4R,0.157000
IDD4R2=0.000000
config.system.mem_ctrls.IDD4R2,0.000000
IDD4W=0.125000
config.system.mem_ctrls.IDD4W,0.125000
IDD4W2=0.000000
config.system.mem_ctrls.IDD4W2,0.000000
IDD5=0.235000
config.system.mem_ctrls.IDD5,0.235000
IDD52=0.000000
config.system.mem_ctrls.IDD52,0.000000
IDD6=0.020000
config.system.mem_ctrls.IDD6,0.020000
IDD62=0.000000
config.system.mem_ctrls.IDD62,0.000000
VDD=1.500000
config.system.mem_ctrls.VDD,1.500000
VDD2=0.000000
config.system.mem_ctrls.VDD2,0.000000
activation_limit=4